<routes>
            <vType accel="1.0" decel="4.5" id="standard_car" length="5.0" minGap="2.5" maxSpeed="25" sigma="0.5" />
            <route id="W_E" edges= "west_edge_one east_edge_two"/>
            <route id="N_S" edges= "north_edge_one south_edge_two"/>
            <route id="E_W" edges= "east_edge_one  west_edge_two"/>
            <route id="S_N" edges= "south_edge_one north_edge_two"/> 

            
<vehicle id="S_N_0" type="standard_car" route="S_N" depart="1.0" departLane="random" departSpeed="10" />
<vehicle id="N_S_1" type="standard_car" route="N_S" depart="3.0" departLane="random" departSpeed="10" />
<vehicle id="N_S_2" type="standard_car" route="N_S" depart="4.0" departLane="random" departSpeed="10" />
<vehicle id="S_N_3" type="standard_car" route="S_N" depart="4.0" departLane="random" departSpeed="10" />
<vehicle id="W_E_4" type="standard_car" route="W_E" depart="5.0" departLane="random" departSpeed="10" />
<vehicle id="S_N_5" type="standard_car" route="S_N" depart="6.0" departLane="random" departSpeed="10" />
<vehicle id="W_E_6" type="standard_car" route="W_E" depart="7.0" departLane="random" departSpeed="10" />
<vehicle id="E_W_7" type="standard_car" route="E_W" depart="14.0" departLane="random" departSpeed="10" />
<vehicle id="N_S_8" type="standard_car" route="N_S" depart="15.0" departLane="random" departSpeed="10" />
<vehicle id="N_S_9" type="standard_car" route="N_S" depart="15.0" departLane="random" departSpeed="10" />
<vehicle id="W_E_10" type="standard_car" route="W_E" depart="16.0" departLane="random" departSpeed="10" />
<vehicle id="E_W_11" type="standard_car" route="E_W" depart="18.0" departLane="random" departSpeed="10" />
<vehicle id="E_W_12" type="standard_car" route="E_W" depart="19.0" departLane="random" departSpeed="10" />
<vehicle id="S_N_13" type="standard_car" route="S_N" depart="21.0" departLane="random" departSpeed="10" />
<vehicle id="S_N_14" type="standard_car" route="S_N" depart="22.0" departLane="random" departSpeed="10" />
<vehicle id="N_S_15" type="standard_car" route="N_S" depart="23.0" departLane="random" departSpeed="10" />
<vehicle id="S_N_16" type="standard_car" route="S_N" depart="25.0" departLane="random" departSpeed="10" />
<vehicle id="S_N_17" type="standard_car" route="S_N" depart="25.0" departLane="random" departSpeed="10" />
<vehicle id="E_W_18" type="standard_car" route="E_W" depart="26.0" departLane="random" departSpeed="10" />
<vehicle id="W_E_19" type="standard_car" route="W_E" depart="28.0" departLane="random" departSpeed="10" />
<vehicle id="N_S_20" type="standard_car" route="N_S" depart="29.0" departLane="random" departSpeed="10" />
<vehicle id="E_W_21" type="standard_car" route="E_W" depart="30.0" departLane="random" departSpeed="10" />
<vehicle id="W_E_22" type="standard_car" route="W_E" depart="31.0" departLane="random" departSpeed="10" />
<vehicle id="S_N_23" type="standard_car" route="S_N" depart="31.0" departLane="random" departSpeed="10" />
<vehicle id="S_N_24" type="standard_car" route="S_N" depart="33.0" departLane="random" departSpeed="10" />
<vehicle id="N_S_25" type="standard_car" route="N_S" depart="34.0" departLane="random" departSpeed="10" />
<vehicle id="N_S_26" type="standard_car" route="N_S" depart="34.0" departLane="random" departSpeed="10" />
<vehicle id="N_S_27" type="standard_car" route="N_S" depart="34.0" departLane="random" departSpeed="10" />
<vehicle id="S_N_28" type="standard_car" route="S_N" depart="36.0" departLane="random" departSpeed="10" />
<vehicle id="N_S_29" type="standard_car" route="N_S" depart="37.0" departLane="random" departSpeed="10" />
<vehicle id="N_S_30" type="standard_car" route="N_S" depart="38.0" departLane="random" departSpeed="10" />
<vehicle id="E_W_31" type="standard_car" route="E_W" depart="40.0" departLane="random" departSpeed="10" />
<vehicle id="E_W_32" type="standard_car" route="E_W" depart="41.0" departLane="random" departSpeed="10" />
<vehicle id="N_S_33" type="standard_car" route="N_S" depart="43.0" departLane="random" departSpeed="10" />
<vehicle id="E_W_34" type="standard_car" route="E_W" depart="45.0" departLane="random" departSpeed="10" />
<vehicle id="W_E_35" type="standard_car" route="W_E" depart="46.0" departLane="random" departSpeed="10" />
<vehicle id="E_W_36" type="standard_car" route="E_W" depart="47.0" departLane="random" departSpeed="10" />
<vehicle id="S_N_37" type="standard_car" route="S_N" depart="48.0" departLane="random" departSpeed="10" />
<vehicle id="E_W_38" type="standard_car" route="E_W" depart="50.0" departLane="random" departSpeed="10" />
<vehicle id="S_N_39" type="standard_car" route="S_N" depart="52.0" departLane="random" departSpeed="10" />
<vehicle id="S_N_40" type="standard_car" route="S_N" depart="58.0" departLane="random" departSpeed="10" />
<vehicle id="N_S_41" type="standard_car" route="N_S" depart="60.0" departLane="random" departSpeed="10" />
<vehicle id="S_N_42" type="standard_car" route="S_N" depart="60.0" departLane="random" departSpeed="10" />
<vehicle id="W_E_43" type="standard_car" route="W_E" depart="60.0" departLane="random" departSpeed="10" />
<vehicle id="W_E_44" type="standard_car" route="W_E" depart="61.0" departLane="random" departSpeed="10" />
<vehicle id="S_N_45" type="standard_car" route="S_N" depart="64.0" departLane="random" departSpeed="10" />
<vehicle id="S_N_46" type="standard_car" route="S_N" depart="64.0" departLane="random" departSpeed="10" />
<vehicle id="W_E_47" type="standard_car" route="W_E" depart="65.0" departLane="random" departSpeed="10" />
<vehicle id="S_N_48" type="standard_car" route="S_N" depart="65.0" departLane="random" departSpeed="10" />
<vehicle id="W_E_49" type="standard_car" route="W_E" depart="67.0" departLane="random" departSpeed="10" />
<vehicle id="W_E_50" type="standard_car" route="W_E" depart="68.0" departLane="random" departSpeed="10" />
<vehicle id="W_E_51" type="standard_car" route="W_E" depart="69.0" departLane="random" departSpeed="10" />
<vehicle id="E_W_52" type="standard_car" route="E_W" depart="70.0" departLane="random" departSpeed="10" />
<vehicle id="E_W_53" type="standard_car" route="E_W" depart="71.0" departLane="random" departSpeed="10" />
<vehicle id="S_N_54" type="standard_car" route="S_N" depart="71.0" departLane="random" departSpeed="10" />
<vehicle id="E_W_55" type="standard_car" route="E_W" depart="72.0" departLane="random" departSpeed="10" />
<vehicle id="W_E_56" type="standard_car" route="W_E" depart="73.0" departLane="random" departSpeed="10" />
<vehicle id="E_W_57" type="standard_car" route="E_W" depart="74.0" departLane="random" departSpeed="10" />
<vehicle id="W_E_58" type="standard_car" route="W_E" depart="75.0" departLane="random" departSpeed="10" />
<vehicle id="W_E_59" type="standard_car" route="W_E" depart="77.0" departLane="random" departSpeed="10" />
<vehicle id="E_W_60" type="standard_car" route="E_W" depart="79.0" departLane="random" departSpeed="10" />
<vehicle id="N_S_61" type="standard_car" route="N_S" depart="80.0" departLane="random" departSpeed="10" />
<vehicle id="E_W_62" type="standard_car" route="E_W" depart="83.0" departLane="random" departSpeed="10" />
<vehicle id="E_W_63" type="standard_car" route="E_W" depart="86.0" departLane="random" departSpeed="10" />
<vehicle id="W_E_64" type="standard_car" route="W_E" depart="88.0" departLane="random" departSpeed="10" />
<vehicle id="N_S_65" type="standard_car" route="N_S" depart="89.0" departLane="random" departSpeed="10" />
<vehicle id="E_W_66" type="standard_car" route="E_W" depart="89.0" departLane="random" departSpeed="10" />
<vehicle id="W_E_67" type="standard_car" route="W_E" depart="90.0" departLane="random" departSpeed="10" />
<vehicle id="N_S_68" type="standard_car" route="N_S" depart="91.0" departLane="random" departSpeed="10" />
<vehicle id="E_W_69" type="standard_car" route="E_W" depart="92.0" departLane="random" departSpeed="10" />
<vehicle id="E_W_70" type="standard_car" route="E_W" depart="92.0" departLane="random" departSpeed="10" />
<vehicle id="W_E_71" type="standard_car" route="W_E" depart="98.0" departLane="random" departSpeed="10" />
<vehicle id="S_N_72" type="standard_car" route="S_N" depart="99.0" departLane="random" departSpeed="10" />
<vehicle id="E_W_73" type="standard_car" route="E_W" depart="99.0" departLane="random" departSpeed="10" />
<vehicle id="S_N_74" type="standard_car" route="S_N" depart="100.0" departLane="random" departSpeed="10" />
<vehicle id="E_W_75" type="standard_car" route="E_W" depart="101.0" departLane="random" departSpeed="10" />
<vehicle id="W_E_76" type="standard_car" route="W_E" depart="101.0" departLane="random" departSpeed="10" />
<vehicle id="S_N_77" type="standard_car" route="S_N" depart="101.0" departLane="random" departSpeed="10" />
<vehicle id="S_N_78" type="standard_car" route="S_N" depart="106.0" departLane="random" departSpeed="10" />
<vehicle id="S_N_79" type="standard_car" route="S_N" depart="109.0" departLane="random" departSpeed="10" />
<vehicle id="W_E_80" type="standard_car" route="W_E" depart="109.0" departLane="random" departSpeed="10" />
<vehicle id="S_N_81" type="standard_car" route="S_N" depart="110.0" departLane="random" departSpeed="10" />
<vehicle id="S_N_82" type="standard_car" route="S_N" depart="110.0" departLane="random" departSpeed="10" />
<vehicle id="E_W_83" type="standard_car" route="E_W" depart="112.0" departLane="random" departSpeed="10" />
<vehicle id="N_S_84" type="standard_car" route="N_S" depart="112.0" departLane="random" departSpeed="10" />
<vehicle id="N_S_85" type="standard_car" route="N_S" depart="113.0" departLane="random" departSpeed="10" />
<vehicle id="E_W_86" type="standard_car" route="E_W" depart="113.0" departLane="random" departSpeed="10" />
<vehicle id="S_N_87" type="standard_car" route="S_N" depart="113.0" departLane="random" departSpeed="10" />
<vehicle id="N_S_88" type="standard_car" route="N_S" depart="115.0" departLane="random" departSpeed="10" />
<vehicle id="S_N_89" type="standard_car" route="S_N" depart="116.0" departLane="random" departSpeed="10" />
<vehicle id="E_W_90" type="standard_car" route="E_W" depart="116.0" departLane="random" departSpeed="10" />
<vehicle id="N_S_91" type="standard_car" route="N_S" depart="123.0" departLane="random" departSpeed="10" />
<vehicle id="W_E_92" type="standard_car" route="W_E" depart="124.0" departLane="random" departSpeed="10" />
<vehicle id="E_W_93" type="standard_car" route="E_W" depart="125.0" departLane="random" departSpeed="10" />
<vehicle id="S_N_94" type="standard_car" route="S_N" depart="130.0" departLane="random" departSpeed="10" />
<vehicle id="S_N_95" type="standard_car" route="S_N" depart="134.0" departLane="random" departSpeed="10" />
<vehicle id="W_E_96" type="standard_car" route="W_E" depart="134.0" departLane="random" departSpeed="10" />
<vehicle id="W_E_97" type="standard_car" route="W_E" depart="136.0" departLane="random" departSpeed="10" />
<vehicle id="W_E_98" type="standard_car" route="W_E" depart="138.0" departLane="random" departSpeed="10" />
<vehicle id="E_W_99" type="standard_car" route="E_W" depart="143.0" departLane="random" departSpeed="10" />
<vehicle id="S_N_100" type="standard_car" route="S_N" depart="143.0" departLane="random" departSpeed="10" />
<vehicle id="E_W_101" type="standard_car" route="E_W" depart="143.0" departLane="random" departSpeed="10" />
<vehicle id="N_S_102" type="standard_car" route="N_S" depart="144.0" departLane="random" departSpeed="10" />
<vehicle id="N_S_103" type="standard_car" route="N_S" depart="145.0" departLane="random" departSpeed="10" />
<vehicle id="S_N_104" type="standard_car" route="S_N" depart="149.0" departLane="random" departSpeed="10" />
<vehicle id="W_E_105" type="standard_car" route="W_E" depart="150.0" departLane="random" departSpeed="10" />
<vehicle id="W_E_106" type="standard_car" route="W_E" depart="151.0" departLane="random" departSpeed="10" />
<vehicle id="N_S_107" type="standard_car" route="N_S" depart="153.0" departLane="random" departSpeed="10" />
<vehicle id="E_W_108" type="standard_car" route="E_W" depart="158.0" departLane="random" departSpeed="10" />
<vehicle id="E_W_109" type="standard_car" route="E_W" depart="159.0" departLane="random" departSpeed="10" />
<vehicle id="S_N_110" type="standard_car" route="S_N" depart="159.0" departLane="random" departSpeed="10" />
<vehicle id="N_S_111" type="standard_car" route="N_S" depart="164.0" departLane="random" departSpeed="10" />
<vehicle id="W_E_112" type="standard_car" route="W_E" depart="164.0" departLane="random" departSpeed="10" />
<vehicle id="N_S_113" type="standard_car" route="N_S" depart="166.0" departLane="random" departSpeed="10" />
<vehicle id="S_N_114" type="standard_car" route="S_N" depart="167.0" departLane="random" departSpeed="10" />
<vehicle id="S_N_115" type="standard_car" route="S_N" depart="168.0" departLane="random" departSpeed="10" />
<vehicle id="W_E_116" type="standard_car" route="W_E" depart="168.0" departLane="random" departSpeed="10" />
<vehicle id="S_N_117" type="standard_car" route="S_N" depart="170.0" departLane="random" departSpeed="10" />
<vehicle id="W_E_118" type="standard_car" route="W_E" depart="170.0" departLane="random" departSpeed="10" />
<vehicle id="N_S_119" type="standard_car" route="N_S" depart="173.0" departLane="random" departSpeed="10" />
<vehicle id="N_S_120" type="standard_car" route="N_S" depart="173.0" departLane="random" departSpeed="10" />
<vehicle id="S_N_121" type="standard_car" route="S_N" depart="173.0" departLane="random" departSpeed="10" />
<vehicle id="N_S_122" type="standard_car" route="N_S" depart="176.0" departLane="random" departSpeed="10" />
<vehicle id="W_E_123" type="standard_car" route="W_E" depart="177.0" departLane="random" departSpeed="10" />
<vehicle id="N_S_124" type="standard_car" route="N_S" depart="179.0" departLane="random" departSpeed="10" />
<vehicle id="E_W_125" type="standard_car" route="E_W" depart="181.0" departLane="random" departSpeed="10" />
<vehicle id="S_N_126" type="standard_car" route="S_N" depart="183.0" departLane="random" departSpeed="10" />
<vehicle id="W_E_127" type="standard_car" route="W_E" depart="185.0" departLane="random" departSpeed="10" />
<vehicle id="E_W_128" type="standard_car" route="E_W" depart="187.0" departLane="random" departSpeed="10" />
<vehicle id="N_S_129" type="standard_car" route="N_S" depart="195.0" departLane="random" departSpeed="10" />
<vehicle id="W_E_130" type="standard_car" route="W_E" depart="198.0" departLane="random" departSpeed="10" />
<vehicle id="N_S_131" type="standard_car" route="N_S" depart="198.0" departLane="random" departSpeed="10" />
<vehicle id="N_S_132" type="standard_car" route="N_S" depart="199.0" departLane="random" departSpeed="10" />
<vehicle id="S_N_133" type="standard_car" route="S_N" depart="200.0" departLane="random" departSpeed="10" />
<vehicle id="S_N_134" type="standard_car" route="S_N" depart="201.0" departLane="random" departSpeed="10" />
<vehicle id="E_W_135" type="standard_car" route="E_W" depart="201.0" departLane="random" departSpeed="10" />
<vehicle id="W_E_136" type="standard_car" route="W_E" depart="202.0" departLane="random" departSpeed="10" />
<vehicle id="E_W_137" type="standard_car" route="E_W" depart="202.0" departLane="random" departSpeed="10" />
<vehicle id="E_W_138" type="standard_car" route="E_W" depart="202.0" departLane="random" departSpeed="10" />
<vehicle id="W_E_139" type="standard_car" route="W_E" depart="202.0" departLane="random" departSpeed="10" />
<vehicle id="S_N_140" type="standard_car" route="S_N" depart="203.0" departLane="random" departSpeed="10" />
<vehicle id="W_E_141" type="standard_car" route="W_E" depart="206.0" departLane="random" departSpeed="10" />
<vehicle id="W_E_142" type="standard_car" route="W_E" depart="206.0" departLane="random" departSpeed="10" />
<vehicle id="S_N_143" type="standard_car" route="S_N" depart="207.0" departLane="random" departSpeed="10" />
<vehicle id="S_N_144" type="standard_car" route="S_N" depart="208.0" departLane="random" departSpeed="10" />
<vehicle id="E_W_145" type="standard_car" route="E_W" depart="212.0" departLane="random" departSpeed="10" />
<vehicle id="E_W_146" type="standard_car" route="E_W" depart="212.0" departLane="random" departSpeed="10" />
<vehicle id="S_N_147" type="standard_car" route="S_N" depart="214.0" departLane="random" departSpeed="10" />
<vehicle id="N_S_148" type="standard_car" route="N_S" depart="221.0" departLane="random" departSpeed="10" />
<vehicle id="E_W_149" type="standard_car" route="E_W" depart="222.0" departLane="random" departSpeed="10" />
<vehicle id="E_W_150" type="standard_car" route="E_W" depart="223.0" departLane="random" departSpeed="10" />
<vehicle id="S_N_151" type="standard_car" route="S_N" depart="230.0" departLane="random" departSpeed="10" />
<vehicle id="W_E_152" type="standard_car" route="W_E" depart="231.0" departLane="random" departSpeed="10" />
<vehicle id="S_N_153" type="standard_car" route="S_N" depart="231.0" departLane="random" departSpeed="10" />
<vehicle id="N_S_154" type="standard_car" route="N_S" depart="232.0" departLane="random" departSpeed="10" />
<vehicle id="W_E_155" type="standard_car" route="W_E" depart="236.0" departLane="random" departSpeed="10" />
<vehicle id="S_N_156" type="standard_car" route="S_N" depart="237.0" departLane="random" departSpeed="10" />
<vehicle id="W_E_157" type="standard_car" route="W_E" depart="238.0" departLane="random" departSpeed="10" />
<vehicle id="E_W_158" type="standard_car" route="E_W" depart="242.0" departLane="random" departSpeed="10" />
<vehicle id="N_S_159" type="standard_car" route="N_S" depart="245.0" departLane="random" departSpeed="10" />
<vehicle id="E_W_160" type="standard_car" route="E_W" depart="248.0" departLane="random" departSpeed="10" />
<vehicle id="S_N_161" type="standard_car" route="S_N" depart="248.0" departLane="random" departSpeed="10" />
<vehicle id="N_S_162" type="standard_car" route="N_S" depart="249.0" departLane="random" departSpeed="10" />
<vehicle id="W_E_163" type="standard_car" route="W_E" depart="252.0" departLane="random" departSpeed="10" />
<vehicle id="W_E_164" type="standard_car" route="W_E" depart="257.0" departLane="random" departSpeed="10" />
<vehicle id="W_E_165" type="standard_car" route="W_E" depart="257.0" departLane="random" departSpeed="10" />
<vehicle id="N_S_166" type="standard_car" route="N_S" depart="262.0" departLane="random" departSpeed="10" />
<vehicle id="W_E_167" type="standard_car" route="W_E" depart="262.0" departLane="random" departSpeed="10" />
<vehicle id="N_S_168" type="standard_car" route="N_S" depart="263.0" departLane="random" departSpeed="10" />
<vehicle id="S_N_169" type="standard_car" route="S_N" depart="264.0" departLane="random" departSpeed="10" />
<vehicle id="S_N_170" type="standard_car" route="S_N" depart="269.0" departLane="random" departSpeed="10" />
<vehicle id="W_E_171" type="standard_car" route="W_E" depart="271.0" departLane="random" departSpeed="10" />
<vehicle id="E_W_172" type="standard_car" route="E_W" depart="272.0" departLane="random" departSpeed="10" />
<vehicle id="E_W_173" type="standard_car" route="E_W" depart="272.0" departLane="random" departSpeed="10" />
<vehicle id="E_W_174" type="standard_car" route="E_W" depart="274.0" departLane="random" departSpeed="10" />
<vehicle id="E_W_175" type="standard_car" route="E_W" depart="276.0" departLane="random" departSpeed="10" />
<vehicle id="N_S_176" type="standard_car" route="N_S" depart="276.0" departLane="random" departSpeed="10" />
<vehicle id="S_N_177" type="standard_car" route="S_N" depart="277.0" departLane="random" departSpeed="10" />
<vehicle id="E_W_178" type="standard_car" route="E_W" depart="280.0" departLane="random" departSpeed="10" />
<vehicle id="E_W_179" type="standard_car" route="E_W" depart="280.0" departLane="random" departSpeed="10" />
<vehicle id="E_W_180" type="standard_car" route="E_W" depart="280.0" departLane="random" departSpeed="10" />
<vehicle id="W_E_181" type="standard_car" route="W_E" depart="281.0" departLane="random" departSpeed="10" />
<vehicle id="N_S_182" type="standard_car" route="N_S" depart="285.0" departLane="random" departSpeed="10" />
<vehicle id="E_W_183" type="standard_car" route="E_W" depart="286.0" departLane="random" departSpeed="10" />
<vehicle id="S_N_184" type="standard_car" route="S_N" depart="286.0" departLane="random" departSpeed="10" />
<vehicle id="S_N_185" type="standard_car" route="S_N" depart="287.0" departLane="random" departSpeed="10" />
<vehicle id="E_W_186" type="standard_car" route="E_W" depart="288.0" departLane="random" departSpeed="10" />
<vehicle id="E_W_187" type="standard_car" route="E_W" depart="289.0" departLane="random" departSpeed="10" />
<vehicle id="S_N_188" type="standard_car" route="S_N" depart="290.0" departLane="random" departSpeed="10" />
<vehicle id="N_S_189" type="standard_car" route="N_S" depart="291.0" departLane="random" departSpeed="10" />
<vehicle id="W_E_190" type="standard_car" route="W_E" depart="291.0" departLane="random" departSpeed="10" />
<vehicle id="N_S_191" type="standard_car" route="N_S" depart="293.0" departLane="random" departSpeed="10" />
<vehicle id="E_W_192" type="standard_car" route="E_W" depart="293.0" departLane="random" departSpeed="10" />
<vehicle id="S_N_193" type="standard_car" route="S_N" depart="295.0" departLane="random" departSpeed="10" />
<vehicle id="S_N_194" type="standard_car" route="S_N" depart="297.0" departLane="random" departSpeed="10" />
<vehicle id="S_N_195" type="standard_car" route="S_N" depart="300.0" departLane="random" departSpeed="10" />
<vehicle id="N_S_196" type="standard_car" route="N_S" depart="301.0" departLane="random" departSpeed="10" />
<vehicle id="S_N_197" type="standard_car" route="S_N" depart="305.0" departLane="random" departSpeed="10" />
<vehicle id="E_W_198" type="standard_car" route="E_W" depart="308.0" departLane="random" departSpeed="10" />
<vehicle id="E_W_199" type="standard_car" route="E_W" depart="314.0" departLane="random" departSpeed="10" />
<vehicle id="W_E_200" type="standard_car" route="W_E" depart="318.0" departLane="random" departSpeed="10" />
<vehicle id="S_N_201" type="standard_car" route="S_N" depart="319.0" departLane="random" departSpeed="10" />
<vehicle id="W_E_202" type="standard_car" route="W_E" depart="325.0" departLane="random" departSpeed="10" />
<vehicle id="N_S_203" type="standard_car" route="N_S" depart="331.0" departLane="random" departSpeed="10" />
<vehicle id="N_S_204" type="standard_car" route="N_S" depart="333.0" departLane="random" departSpeed="10" />
<vehicle id="S_N_205" type="standard_car" route="S_N" depart="333.0" departLane="random" departSpeed="10" />
<vehicle id="E_W_206" type="standard_car" route="E_W" depart="335.0" departLane="random" departSpeed="10" />
<vehicle id="W_E_207" type="standard_car" route="W_E" depart="335.0" departLane="random" departSpeed="10" />
<vehicle id="E_W_208" type="standard_car" route="E_W" depart="338.0" departLane="random" departSpeed="10" />
<vehicle id="W_E_209" type="standard_car" route="W_E" depart="341.0" departLane="random" departSpeed="10" />
<vehicle id="E_W_210" type="standard_car" route="E_W" depart="342.0" departLane="random" departSpeed="10" />
<vehicle id="N_S_211" type="standard_car" route="N_S" depart="343.0" departLane="random" departSpeed="10" />
<vehicle id="W_E_212" type="standard_car" route="W_E" depart="345.0" departLane="random" departSpeed="10" />
<vehicle id="S_N_213" type="standard_car" route="S_N" depart="345.0" departLane="random" departSpeed="10" />
<vehicle id="N_S_214" type="standard_car" route="N_S" depart="347.0" departLane="random" departSpeed="10" />
<vehicle id="E_W_215" type="standard_car" route="E_W" depart="348.0" departLane="random" departSpeed="10" />
<vehicle id="S_N_216" type="standard_car" route="S_N" depart="349.0" departLane="random" departSpeed="10" />
<vehicle id="W_E_217" type="standard_car" route="W_E" depart="359.0" departLane="random" departSpeed="10" />
<vehicle id="E_W_218" type="standard_car" route="E_W" depart="361.0" departLane="random" departSpeed="10" />
<vehicle id="S_N_219" type="standard_car" route="S_N" depart="364.0" departLane="random" departSpeed="10" />
<vehicle id="E_W_220" type="standard_car" route="E_W" depart="368.0" departLane="random" departSpeed="10" />
<vehicle id="S_N_221" type="standard_car" route="S_N" depart="372.0" departLane="random" departSpeed="10" />
<vehicle id="W_E_222" type="standard_car" route="W_E" depart="373.0" departLane="random" departSpeed="10" />
<vehicle id="N_S_223" type="standard_car" route="N_S" depart="375.0" departLane="random" departSpeed="10" />
<vehicle id="N_S_224" type="standard_car" route="N_S" depart="376.0" departLane="random" departSpeed="10" />
<vehicle id="E_W_225" type="standard_car" route="E_W" depart="377.0" departLane="random" departSpeed="10" />
<vehicle id="E_W_226" type="standard_car" route="E_W" depart="382.0" departLane="random" departSpeed="10" />
<vehicle id="N_S_227" type="standard_car" route="N_S" depart="384.0" departLane="random" departSpeed="10" />
<vehicle id="N_S_228" type="standard_car" route="N_S" depart="384.0" departLane="random" departSpeed="10" />
<vehicle id="W_E_229" type="standard_car" route="W_E" depart="384.0" departLane="random" departSpeed="10" />
<vehicle id="E_W_230" type="standard_car" route="E_W" depart="385.0" departLane="random" departSpeed="10" />
<vehicle id="S_N_231" type="standard_car" route="S_N" depart="386.0" departLane="random" departSpeed="10" />
<vehicle id="E_W_232" type="standard_car" route="E_W" depart="388.0" departLane="random" departSpeed="10" />
<vehicle id="S_N_233" type="standard_car" route="S_N" depart="389.0" departLane="random" departSpeed="10" />
<vehicle id="E_W_234" type="standard_car" route="E_W" depart="389.0" departLane="random" departSpeed="10" />
<vehicle id="N_S_235" type="standard_car" route="N_S" depart="393.0" departLane="random" departSpeed="10" />
<vehicle id="N_S_236" type="standard_car" route="N_S" depart="394.0" departLane="random" departSpeed="10" />
<vehicle id="N_S_237" type="standard_car" route="N_S" depart="396.0" departLane="random" departSpeed="10" />
<vehicle id="S_N_238" type="standard_car" route="S_N" depart="398.0" departLane="random" departSpeed="10" />
<vehicle id="S_N_239" type="standard_car" route="S_N" depart="399.0" departLane="random" departSpeed="10" />
<vehicle id="S_N_240" type="standard_car" route="S_N" depart="400.0" departLane="random" departSpeed="10" />
<vehicle id="S_N_241" type="standard_car" route="S_N" depart="404.0" departLane="random" departSpeed="10" />
<vehicle id="S_N_242" type="standard_car" route="S_N" depart="405.0" departLane="random" departSpeed="10" />
<vehicle id="E_W_243" type="standard_car" route="E_W" depart="406.0" departLane="random" departSpeed="10" />
<vehicle id="S_N_244" type="standard_car" route="S_N" depart="414.0" departLane="random" departSpeed="10" />
<vehicle id="N_S_245" type="standard_car" route="N_S" depart="416.0" departLane="random" departSpeed="10" />
<vehicle id="E_W_246" type="standard_car" route="E_W" depart="416.0" departLane="random" departSpeed="10" />
<vehicle id="W_E_247" type="standard_car" route="W_E" depart="416.0" departLane="random" departSpeed="10" />
<vehicle id="S_N_248" type="standard_car" route="S_N" depart="418.0" departLane="random" departSpeed="10" />
<vehicle id="N_S_249" type="standard_car" route="N_S" depart="419.0" departLane="random" departSpeed="10" />
<vehicle id="W_E_250" type="standard_car" route="W_E" depart="422.0" departLane="random" departSpeed="10" />
<vehicle id="N_S_251" type="standard_car" route="N_S" depart="427.0" departLane="random" departSpeed="10" />
<vehicle id="W_E_252" type="standard_car" route="W_E" depart="430.0" departLane="random" departSpeed="10" />
<vehicle id="E_W_253" type="standard_car" route="E_W" depart="433.0" departLane="random" departSpeed="10" />
<vehicle id="N_S_254" type="standard_car" route="N_S" depart="434.0" departLane="random" departSpeed="10" />
<vehicle id="N_S_255" type="standard_car" route="N_S" depart="435.0" departLane="random" departSpeed="10" />
<vehicle id="W_E_256" type="standard_car" route="W_E" depart="435.0" departLane="random" departSpeed="10" />
<vehicle id="W_E_257" type="standard_car" route="W_E" depart="439.0" departLane="random" departSpeed="10" />
<vehicle id="N_S_258" type="standard_car" route="N_S" depart="440.0" departLane="random" departSpeed="10" />
<vehicle id="S_N_259" type="standard_car" route="S_N" depart="444.0" departLane="random" departSpeed="10" />
<vehicle id="S_N_260" type="standard_car" route="S_N" depart="449.0" departLane="random" departSpeed="10" />
<vehicle id="E_W_261" type="standard_car" route="E_W" depart="450.0" departLane="random" departSpeed="10" />
<vehicle id="N_S_262" type="standard_car" route="N_S" depart="453.0" departLane="random" departSpeed="10" />
<vehicle id="S_N_263" type="standard_car" route="S_N" depart="458.0" departLane="random" departSpeed="10" />
<vehicle id="S_N_264" type="standard_car" route="S_N" depart="460.0" departLane="random" departSpeed="10" />
<vehicle id="N_S_265" type="standard_car" route="N_S" depart="462.0" departLane="random" departSpeed="10" />
<vehicle id="S_N_266" type="standard_car" route="S_N" depart="463.0" departLane="random" departSpeed="10" />
<vehicle id="E_W_267" type="standard_car" route="E_W" depart="463.0" departLane="random" departSpeed="10" />
<vehicle id="E_W_268" type="standard_car" route="E_W" depart="464.0" departLane="random" departSpeed="10" />
<vehicle id="E_W_269" type="standard_car" route="E_W" depart="464.0" departLane="random" departSpeed="10" />
<vehicle id="S_N_270" type="standard_car" route="S_N" depart="464.0" departLane="random" departSpeed="10" />
<vehicle id="S_N_271" type="standard_car" route="S_N" depart="465.0" departLane="random" departSpeed="10" />
<vehicle id="N_S_272" type="standard_car" route="N_S" depart="467.0" departLane="random" departSpeed="10" />